[General]
network = sality.ned_files.Sality
cmdenv-event-banners = false
cmdenv-express-mode = false
print-undisposed = false
sim-time-limit =  86400s # 1 day
simtime-resolution = ms
**.cmdenv-log-level = DEBUG

# Repitition specific
repeat = 3

# Entity specific
**.botmaster[*].maxNewURLPackDelay = 7600

# Uncomment and set cmdenv in run file for file logging
cmdenv-redirect-output = true
